sro/6dg8_hetd.pdb
 OpenBabel03272410483D

 13 14  0  0  0  0  0  0  0  0999 V2000
  181.7060  170.1070  193.9690 O   0  0  0  0  0  0  0  0  0  0  0  0
  183.0650  169.7710  194.0090 C   0  0  0  0  0  0  0  0  0  0  0  0
  184.0230  170.7640  194.2230 C   0  0  0  0  0  0  0  0  0  0  0  0
  185.3700  170.4270  194.2620 C   0  0  0  0  0  0  0  0  0  0  0  0
  185.7700  169.0750  194.0850 C   0  0  0  0  0  0  0  0  0  0  0  0
  186.9940  168.4890  194.0800 N   0  0  0  0  0  0  0  0  0  0  0  0
  186.8840  167.1910  193.8730 C   0  0  0  0  0  0  0  0  0  0  0  0
  185.5380  166.8750  193.7350 C   0  0  0  0  0  0  0  0  0  0  0  0
  184.8280  168.1020  193.8760 C   0  0  0  0  0  0  0  0  0  0  0  0
  183.4550  168.4450  193.8350 C   0  0  0  0  0  0  0  0  0  0  0  0
  184.9530  165.4870  193.4860 C   0  0  0  0  0  0  0  0  0  0  0  0
  184.9330  164.6330  194.7510 C   0  0  0  0  0  0  0  0  0  0  0  0
  185.0740  163.2300  194.4070 N   0  0  0  0  0  0  0  0  0  0  0  0
  1  2  1  0  0  0  0
  2  3  2  0  0  0  0
  3  4  1  0  0  0  0
  5  4  2  0  0  0  0
  6  5  1  0  0  0  0
  7  6  1  0  0  0  0
  8  7  2  0  0  0  0
  8  9  1  0  0  0  0
  9  5  1  0  0  0  0
 10  9  2  0  0  0  0
 10  2  1  0  0  0  0
 11  8  1  0  0  0  0
 11 12  1  0  0  0  0
 13 12  1  0  0  0  0
M  END
