sro/6dg8_hetc.pdb
 OpenBabel03272410483D

 13 14  0  0  0  0  0  0  0  0999 V2000
  135.6310  163.4880  194.1100 O   0  0  0  0  0  0  0  0  0  0  0  0
  134.8640  164.6470  193.9540 C   0  0  0  0  0  0  0  0  0  0  0  0
  133.5330  164.5600  193.5370 C   0  0  0  0  0  0  0  0  0  0  0  0
  132.7780  165.7170  193.3840 C   0  0  0  0  0  0  0  0  0  0  0  0
  133.3630  166.9850  193.6530 C   0  0  0  0  0  0  0  0  0  0  0  0
  132.8660  168.2470  193.5880 N   0  0  0  0  0  0  0  0  0  0  0  0
  133.7870  169.1280  193.9310 C   0  0  0  0  0  0  0  0  0  0  0  0
  134.9560  168.4450  194.2470 C   0  0  0  0  0  0  0  0  0  0  0  0
  134.6680  167.0640  194.0610 C   0  0  0  0  0  0  0  0  0  0  0  0
  135.4370  165.8870  194.2180 C   0  0  0  0  0  0  0  0  0  0  0  0
  136.2850  169.0480  194.7010 C   0  0  0  0  0  0  0  0  0  0  0  0
  136.2970  170.5750  194.6580 C   0  0  0  0  0  0  0  0  0  0  0  0
  137.2810  171.0950  193.7260 N   0  0  0  0  0  0  0  0  0  0  0  0
  2  1  1  0  0  0  0
  2 10  2  0  0  0  0
  3  2  1  0  0  0  0
  4  3  2  0  0  0  0
  4  5  1  0  0  0  0
  5  9  2  0  0  0  0
  6  5  1  0  0  0  0
  6  7  1  0  0  0  0
  7  8  2  0  0  0  0
  8 11  1  0  0  0  0
  9 10  1  0  0  0  0
  9  8  1  0  0  0  0
 12 11  1  0  0  0  0
 13 12  1  0  0  0  0
M  END
