sro/6dg8_heta.pdb
 OpenBabel03272410483D

 13 14  0  0  0  0  0  0  0  0999 V2000
  148.3460  137.8430  194.1160 O   0  0  0  0  0  0  0  0  0  0  0  0
  146.9920  137.5380  193.9300 C   0  0  0  0  0  0  0  0  0  0  0  0
  146.6150  136.3230  193.3510 C   0  0  0  0  0  0  0  0  0  0  0  0
  145.2690  136.0270  193.1690 C   0  0  0  0  0  0  0  0  0  0  0  0
  144.2780  136.9630  193.5740 C   0  0  0  0  0  0  0  0  0  0  0  0
  142.9230  136.9290  193.5140 N   0  0  0  0  0  0  0  0  0  0  0  0
  142.4100  138.0370  194.0150 C   0  0  0  0  0  0  0  0  0  0  0  0
  143.4470  138.8600  194.4320 C   0  0  0  0  0  0  0  0  0  0  0  0
  144.6500  138.1540  194.1400 C   0  0  0  0  0  0  0  0  0  0  0  0
  146.0210  138.4520  194.3260 C   0  0  0  0  0  0  0  0  0  0  0  0
  143.3180  140.2400  195.0720 C   0  0  0  0  0  0  0  0  0  0  0  0
  141.9190  140.8350  194.9220 C   0  0  0  0  0  0  0  0  0  0  0  0
  141.7960  141.5930  193.6910 N   0  0  0  0  0  0  0  0  0  0  0  0
  2  1  1  0  0  0  0
  2 10  2  0  0  0  0
  3  2  1  0  0  0  0
  4  3  2  0  0  0  0
  4  5  1  0  0  0  0
  5  9  2  0  0  0  0
  6  5  1  0  0  0  0
  6  7  1  0  0  0  0
  7  8  2  0  0  0  0
  8 11  1  0  0  0  0
  9 10  1  0  0  0  0
  9  8  1  0  0  0  0
 12 11  1  0  0  0  0
 13 12  1  0  0  0  0
M  END
