sro/6dg8_heta.pdb
 OpenBabel03272410483D

 25 26  0  0  0  0  0  0  0  0999 V2000
  148.3460  137.8430  194.1160 O   0  0  0  0  0  0  0  0  0  0  0  0
  146.9920  137.5380  193.9300 C   0  0  0  0  0  0  0  0  0  0  0  0
  146.6150  136.3230  193.3510 C   0  0  0  0  0  0  0  0  0  0  0  0
  145.2690  136.0270  193.1690 C   0  0  0  0  0  0  0  0  0  0  0  0
  144.2780  136.9630  193.5740 C   0  0  0  0  0  0  0  0  0  0  0  0
  142.9230  136.9290  193.5140 N   0  0  0  0  0  0  0  0  0  0  0  0
  142.4100  138.0370  194.0150 C   0  0  0  0  0  0  0  0  0  0  0  0
  143.4470  138.8600  194.4320 C   0  0  0  0  0  0  0  0  0  0  0  0
  144.6500  138.1540  194.1400 C   0  0  0  0  0  0  0  0  0  0  0  0
  146.0210  138.4520  194.3260 C   0  0  0  0  0  0  0  0  0  0  0  0
  143.3180  140.2400  195.0720 C   0  0  0  0  0  0  0  0  0  0  0  0
  141.9190  140.8350  194.9220 C   0  0  0  0  0  0  0  0  0  0  0  0
  141.7960  141.5930  193.6910 N   0  0  0  0  0  0  0  0  0  0  0  0
  149.0047  137.2314  193.8513 H   0  0  0  0  0  0  0  0  0  0  0  0
  147.3362  135.6453  193.0585 H   0  0  0  0  0  0  0  0  0  0  0  0
  144.9897  135.1304  192.7411 H   0  0  0  0  0  0  0  0  0  0  0  0
  142.3961  136.1822  193.1479 H   0  0  0  0  0  0  0  0  0  0  0  0
  141.4038  138.2555  194.0851 H   0  0  0  0  0  0  0  0  0  0  0  0
  146.3005  139.3478  194.7556 H   0  0  0  0  0  0  0  0  0  0  0  0
  144.0212  140.8992  194.6074 H   0  0  0  0  0  0  0  0  0  0  0  0
  143.5095  140.1283  196.1188 H   0  0  0  0  0  0  0  0  0  0  0  0
  141.2018  140.0410  194.9152 H   0  0  0  0  0  0  0  0  0  0  0  0
  141.7444  141.4970  195.7443 H   0  0  0  0  0  0  0  0  0  0  0  0
  141.9596  140.9770  192.8946 H   0  0  0  0  0  0  0  0  0  0  0  0
  142.4839  142.3461  193.6853 H   0  0  0  0  0  0  0  0  0  0  0  0
  1 14  1  0  0  0  0
  2  1  1  0  0  0  0
  2 10  2  0  0  0  0
  3  2  1  0  0  0  0
  3 15  1  0  0  0  0
  4  3  2  0  0  0  0
  4  5  1  0  0  0  0
  4 16  1  0  0  0  0
  5  9  2  0  0  0  0
  6  5  1  0  0  0  0
  6  7  1  0  0  0  0
  6 17  1  0  0  0  0
  7  8  2  0  0  0  0
  7 18  1  0  0  0  0
  8 11  1  0  0  0  0
  9 10  1  0  0  0  0
  9  8  1  0  0  0  0
 10 19  1  0  0  0  0
 11 20  1  0  0  0  0
 11 21  1  0  0  0  0
 12 11  1  0  0  0  0
 12 22  1  0  0  0  0
 12 23  1  0  0  0  0
 13 12  1  0  0  0  0
 13 24  1  0  0  0  0
 13 25  1  0  0  0  0
M  END
